  Page 1                                    Sat Aug 17 21:34:28 2024

  ******************************************************************
  *                           E P A N E T                          *
  *                   Hydraulic and Water Quality                  *
  *                   Analysis for Pipe Networks                   *
  *                         Version 2.2                            *
  ******************************************************************
  
  Analysis begun Sat Aug 17 21:34:28 2024

   
  Hydraulic Status:
  -----------------------------------------------------------------------
     0:00:00: Pump 10 changed by timer control
     0:00:00: Balanced after 35 trials
              15 nodes had demands reduced by a total of 100.00%
     0:00:00: Reservoir River is emptying
     0:00:00: Reservoir Lake is closed
     0:00:00: Reservoir 131_breakA_1_nn is filling
     0:00:00: Reservoir 131_breakB_1_nn is closed
     0:00:00: Reservoir 131_leak_2_nn is filling
     0:00:00: Reservoir 147_breakA_1_nn is closed
     0:00:00: Reservoir 147_breakB_1_nn is closed
     0:00:00: Reservoir 153_breakA_1_nn is filling
     0:00:00: Reservoir 153_breakB_1_nn is closed
     0:00:00: Reservoir 177_leak_1_nn is filling
     0:00:00: Reservoir 204_leak_1_nn is closed
     0:00:00: Reservoir 204_breakA_2_nn is closed
     0:00:00: Reservoir 204_breakB_2_nn is filling
     0:00:00: Reservoir 204_breakA_3_nn is filling
     0:00:00: Reservoir 204_breakB_3_nn is closed
     0:00:00: Reservoir 204_leak_4_nn is filling
     0:00:00: Tank 1 is closed at 15.09 ft
     0:00:00: Tank 2 is closed at 6.50 ft
     0:00:00: Tank 3 is closed at 4.00 ft
     0:00:00: Pipe 20 temporarily closed
     0:00:00: Pipe 50 temporarily closed
     0:00:00: CV lk_pipe_109 closed
     0:00:00: CV lk_pipe_121 closed
     0:00:00: CV lk_pipe_149 closed
     0:00:00: CV lk_pipe_199 closed
     0:00:00: CV 131_breakB_1-rlk closed
     0:00:00: CV 147_breakA_1-rlk closed
     0:00:00: CV 147_breakB_1-rlk closed
     0:00:00: CV 153_breakB_1-rlk closed
     0:00:00: CV 204_leak_1-rlk closed
     0:00:00: CV 204_breakA_2-rlk closed
     0:00:00: CV 204_breakB_3-rlk closed
     0:00:00: Pump 10 closed
   
     0:00:00: Balanced after 9 trials
              15 nodes had demands reduced by a total of 100.00%
   
     0:15:00: Balanced after 9 trials
              15 nodes had demands reduced by a total of 100.00%
   
     0:30:00: Balanced after 9 trials
              15 nodes had demands reduced by a total of 100.00%
   
     0:45:00: Balanced after 9 trials
              15 nodes had demands reduced by a total of 100.00%
   
     1:00:00: Balanced after 7 trials
              14 nodes had demands reduced by a total of 100.00%
   
     1:15:00: Balanced after 7 trials
              14 nodes had demands reduced by a total of 100.00%
   
     1:30:00: Balanced after 7 trials
              14 nodes had demands reduced by a total of 100.00%
   
     1:45:00: Balanced after 7 trials
              14 nodes had demands reduced by a total of 100.00%
   
     2:00:00: Balanced after 7 trials
              14 nodes had demands reduced by a total of 100.00%
   
     2:15:00: Balanced after 7 trials
              14 nodes had demands reduced by a total of 100.00%
   
     2:30:00: Balanced after 7 trials
              14 nodes had demands reduced by a total of 100.00%
   
     2:45:00: Balanced after 7 trials
              14 nodes had demands reduced by a total of 100.00%
   
     3:00:00: Balanced after 6 trials
              14 nodes had demands reduced by a total of 100.00%
   
     3:15:00: Balanced after 6 trials
              14 nodes had demands reduced by a total of 100.00%
   
     3:30:00: Balanced after 6 trials
              14 nodes had demands reduced by a total of 100.00%
   
     3:45:00: Balanced after 6 trials
              14 nodes had demands reduced by a total of 100.00%
   
     4:00:00: Balanced after 8 trials
              14 nodes had demands reduced by a total of 100.00%
   
  Water Quality Mass Balance (mg)
  ================================
  Initial Mass:      0.00000e+000
  Mass Inflow:       0.00000e+000
  Mass Outflow:      0.00000e+000
  Mass Reacted:      0.00000e+000
  Final Mass:        0.00000e+000
  Mass Ratio:         1.00000
  ================================

  Analysis ended Sat Aug 17 21:34:28 2024
